2844779
  -OEChem-11232221443D

 42 46  0     0  0  0  0  0  0999 V2000
    2.4781   -2.6618    0.2244 O   0  0  0  0  0  0  0  0  0  0  0  0
   -2.4778    2.6618    0.2237 O   0  0  0  0  0  0  0  0  0  0  0  0
    2.4962    1.3829    0.2156 N   0  0  0  0  0  0  0  0  0  0  0  0
   -2.4962   -1.3831    0.2155 N   0  0  0  0  0  0  0  0  0  0  0  0
    1.2478    0.7222    0.1964 C   0  0  0  0  0  0  0  0  0  0  0  0
   -1.2478   -0.7223    0.1964 C   0  0  0  0  0  0  0  0  0  0  0  0
    1.2035   -0.6801    0.1717 C   0  0  0  0  0  0  0  0  0  0  0  0
   -1.2035    0.6800    0.1715 C   0  0  0  0  0  0  0  0  0  0  0  0
    0.0131    1.3877    0.1750 C   0  0  0  0  0  0  0  0  0  0  0  0
   -0.0131   -1.3878    0.1750 C   0  0  0  0  0  0  0  0  0  0  0  0
    3.7167    0.7122   -0.0242 C   0  0  0  0  0  0  0  0  0  0  0  0
   -3.7167   -0.7122   -0.0241 C   0  0  0  0  0  0  0  0  0  0  0  0
    3.7377   -0.6953   -0.0591 C   0  0  0  0  0  0  0  0  0  0  0  0
   -3.7377    0.6954   -0.0591 C   0  0  0  0  0  0  0  0  0  0  0  0
    2.4736   -1.4414    0.1266 C   0  0  0  0  0  0  0  0  0  0  0  0
   -2.4734    1.4414    0.1263 C   0  0  0  0  0  0  0  0  0  0  0  0
    2.5237    2.8294    0.4506 C   0  0  0  0  0  0  0  0  0  0  0  0
   -2.5237   -2.8298    0.4492 C   0  0  0  0  0  0  0  0  0  0  0  0
    4.9384    1.3716   -0.2520 C   0  0  0  0  0  0  0  0  0  0  0  0
   -4.9387   -1.3714   -0.2515 C   0  0  0  0  0  0  0  0  0  0  0  0
    4.9237   -1.4115   -0.2747 C   0  0  0  0  0  0  0  0  0  0  0  0
   -4.9237    1.4116   -0.2747 C   0  0  0  0  0  0  0  0  0  0  0  0
    6.1238    0.6615   -0.4721 C   0  0  0  0  0  0  0  0  0  0  0  0
   -6.1241   -0.6613   -0.4715 C   0  0  0  0  0  0  0  0  0  0  0  0
    6.1175   -0.7281   -0.4775 C   0  0  0  0  0  0  0  0  0  0  0  0
   -6.1175    0.7284   -0.4774 C   0  0  0  0  0  0  0  0  0  0  0  0
   -0.0214    2.4733    0.1357 H   0  0  0  0  0  0  0  0  0  0  0  0
    0.0215   -2.4734    0.1358 H   0  0  0  0  0  0  0  0  0  0  0  0
    1.7215    3.1575    1.1210 H   0  0  0  0  0  0  0  0  0  0  0  0
    3.4352    3.1508    0.9663 H   0  0  0  0  0  0  0  0  0  0  0  0
    2.4407    3.3735   -0.4962 H   0  0  0  0  0  0  0  0  0  0  0  0
   -2.4410   -3.3730   -0.4982 H   0  0  0  0  0  0  0  0  0  0  0  0
   -3.4351   -3.1516    0.9650 H   0  0  0  0  0  0  0  0  0  0  0  0
   -1.7214   -3.1585    1.1190 H   0  0  0  0  0  0  0  0  0  0  0  0
    5.0028    2.4559   -0.2811 H   0  0  0  0  0  0  0  0  0  0  0  0
   -5.0033   -2.4557   -0.2804 H   0  0  0  0  0  0  0  0  0  0  0  0
    4.9326   -2.4978   -0.2957 H   0  0  0  0  0  0  0  0  0  0  0  0
   -4.9324    2.4980   -0.2960 H   0  0  0  0  0  0  0  0  0  0  0  0
    7.0516    1.2001   -0.6434 H   0  0  0  0  0  0  0  0  0  0  0  0
   -7.0520   -1.1998   -0.6425 H   0  0  0  0  0  0  0  0  0  0  0  0
    7.0383   -1.2772   -0.6489 H   0  0  0  0  0  0  0  0  0  0  0  0
   -7.0383    1.2775   -0.6487 H   0  0  0  0  0  0  0  0  0  0  0  0
  1 15  2  0  0  0  0
  2 16  2  0  0  0  0
  3  5  1  0  0  0  0
  3 11  1  0  0  0  0
  3 17  1  0  0  0  0
  4  6  1  0  0  0  0
  4 12  1  0  0  0  0
  4 18  1  0  0  0  0
  5  7  2  0  0  0  0
  5  9  1  0  0  0  0
  6  8  1  0  0  0  0
  6 10  2  0  0  0  0
  7 10  1  0  0  0  0
  7 15  1  0  0  0  0
  8  9  2  0  0  0  0
  8 16  1  0  0  0  0
  9 27  1  0  0  0  0
 10 28  1  0  0  0  0
 11 13  1  0  0  0  0
 11 19  2  0  0  0  0
 12 14  1  0  0  0  0
 12 20  2  0  0  0  0
 13 15  1  0  0  0  0
 13 21  2  0  0  0  0
 14 16  1  0  0  0  0
 14 22  2  0  0  0  0
 17 29  1  0  0  0  0
 17 30  1  0  0  0  0
 17 31  1  0  0  0  0
 18 32  1  0  0  0  0
 18 33  1  0  0  0  0
 18 34  1  0  0  0  0
 19 23  1  0  0  0  0
 19 35  1  0  0  0  0
 20 24  1  0  0  0  0
 20 36  1  0  0  0  0
 21 25  1  0  0  0  0
 21 37  1  0  0  0  0
 22 26  1  0  0  0  0
 22 38  1  0  0  0  0
 23 25  2  0  0  0  0
 23 39  1  0  0  0  0
 24 26  2  0  0  0  0
 24 40  1  0  0  0  0
 25 41  1  0  0  0  0
 26 42  1  0  0  0  0
M  END
> <PUBCHEM_COMPOUND_CID>
2844779

> <PUBCHEM_CONFORMER_RMSD>
0.6

> <PUBCHEM_CONFORMER_DIVERSEORDER>
1

> <PUBCHEM_MMFF94_PARTIAL_CHARGES>
36
1 -0.57
10 -0.15
11 0.1
12 0.1
13 0.09
14 0.09
15 0.4
16 0.4
17 0.37
18 0.37
19 -0.15
2 -0.57
20 -0.15
21 -0.15
22 -0.15
23 -0.15
24 -0.15
25 -0.15
26 -0.15
27 0.15
28 0.15
3 -0.57
35 0.15
36 0.15
37 0.15
38 0.15
39 0.15
4 -0.57
40 0.15
41 0.15
42 0.15
5 0.1
6 0.1
7 0.09
8 0.09
9 -0.15

> <PUBCHEM_EFFECTIVE_ROTOR_COUNT>
0

> <PUBCHEM_PHARMACOPHORE_FEATURES>
9
1 1 acceptor
1 2 acceptor
1 3 cation
1 4 cation
6 11 13 19 21 23 25 rings
6 12 14 20 22 24 26 rings
6 3 5 7 11 13 15 rings
6 4 6 8 12 14 16 rings
6 5 6 7 8 9 10 rings

> <PUBCHEM_HEAVY_ATOM_COUNT>
26

> <PUBCHEM_ATOM_DEF_STEREO_COUNT>
0

> <PUBCHEM_ATOM_UDEF_STEREO_COUNT>
0

> <PUBCHEM_BOND_DEF_STEREO_COUNT>
0

> <PUBCHEM_BOND_UDEF_STEREO_COUNT>
0

> <PUBCHEM_ISOTOPIC_ATOM_COUNT>
0

> <PUBCHEM_COMPONENT_COUNT>
1

> <PUBCHEM_CACTVS_TAUTO_COUNT>
1

> <PUBCHEM_CONFORMER_ID>
002B686B00000001

> <PUBCHEM_MMFF94_ENERGY>
110.7153

> <PUBCHEM_FEATURE_SELFOVERLAP>
45.76

> <PUBCHEM_SHAPE_FINGERPRINT>
10595046 47 18410855434363632804
10906281 52 18270417017904091419
11315181 36 17846502547134242097
11524674 6 16128655267307023967
11578080 2 16700312355966117002
11719270 70 18340762668433482194
12011746 2 18410575080368111815
12107183 9 17618221702372655793
12166972 35 18187367644356480541
12236239 1 18410856542459920485
12516196 113 18060135444772084160
12788726 201 17916586432180586897
13402501 40 18410573993741385775
13668630 136 16988849396892808742
13862211 1 18411136901462597930
14341114 176 18410016545725655060
14528608 73 18410012143668941942
14790565 3 17691693290472703881
14931854 50 18410292475815002583
15183329 4 18410575063188242448
15196674 1 18410573985151451169
16993438 75 17969232311513293499
17857418 61 18411698777020093424
18608769 82 18188497986129860875
18681886 176 18272082825275167250
200 152 17988924474423539673
21236236 1 18342741784820163233
21267235 1 18411142463466455611
21279426 13 18338798914062254471
221357 26 18342174466510494316
221490 88 18338241595296319738
23402539 116 18413384341705116901
23522609 53 18127159478541536673
23559900 14 18340199795098213609
3004659 81 18334295353959936342
335352 9 18410855473013064070
34797466 226 16988565727968797244
34934 24 18408037416126940282
350125 39 18410575080463446921
3545911 37 18408323293724229845
3633792 109 18409722929762908061
4073 2 18041002903293699106
4214541 1 18410294713503532329
4325135 7 18410855455833194894
4340502 62 16515688822891953226
5104073 3 18410856563934757856
59755656 215 18409167705753752790
59755656 520 16950279628850681851
9709674 26 18412268332797162055

> <PUBCHEM_SHAPE_MULTIPOLES>
513.37
14.71
2.63
0.68
0
0
-0.02
0
-3.34
0
0.36
0
0
0.25

> <PUBCHEM_SHAPE_SELFOVERLAP>
1169.839

> <PUBCHEM_SHAPE_VOLUME>
265.5

> <PUBCHEM_COORDINATE_TYPE>
2
5
10

$$$$
