11776
     RDKit          3D

 34 36  0  0  0  0  0  0  0  0999 V2000
    0.0096    0.0033   -0.8586 P   0  0  0  0  0  0  0  0  0  0  0  0
   -0.2549   -1.7281   -0.3906 C   0  0  0  0  0  0  0  0  0  0  0  0
   -1.3563    1.0930   -0.4106 C   0  0  0  0  0  0  0  0  0  0  0  0
    1.6352    0.6257   -0.3459 C   0  0  0  0  0  0  0  0  0  0  0  0
   -1.2231   -2.4911   -1.0103 C   0  0  0  0  0  0  0  0  0  0  0  0
   -1.8171    1.2000    0.8822 C   0  0  0  0  0  0  0  0  0  0  0  0
    1.7530    1.4095    0.7870 C   0  0  0  0  0  0  0  0  0  0  0  0
    0.5096   -2.3065    0.5929 C   0  0  0  0  0  0  0  0  0  0  0  0
   -1.9716    1.8515   -1.3805 C   0  0  0  0  0  0  0  0  0  0  0  0
    2.7604    0.3131   -1.0935 C   0  0  0  0  0  0  0  0  0  0  0  0
   -1.4121   -3.8158   -0.6393 C   0  0  0  0  0  0  0  0  0  0  0  0
   -2.8637    2.0370    1.2169 C   0  0  0  0  0  0  0  0  0  0  0  0
    2.9854    1.8870    1.1841 C   0  0  0  0  0  0  0  0  0  0  0  0
    0.3407   -3.6282    0.9822 C   0  0  0  0  0  0  0  0  0  0  0  0
   -3.0195    2.6967   -1.0767 C   0  0  0  0  0  0  0  0  0  0  0  0
    3.9916    0.7918   -0.6943 C   0  0  0  0  0  0  0  0  0  0  0  0
   -0.6381   -4.3737    0.3448 C   0  0  0  0  0  0  0  0  0  0  0  0
   -3.4720    2.7948    0.2233 C   0  0  0  0  0  0  0  0  0  0  0  0
    4.1042    1.5740    0.4374 C   0  0  0  0  0  0  0  0  0  0  0  0
   -1.8188   -2.0234   -1.7839 H   0  0  0  0  0  0  0  0  0  0  0  0
   -1.3334    0.6056    1.6367 H   0  0  0  0  0  0  0  0  0  0  0  0
    0.8563    1.6507    1.3711 H   0  0  0  0  0  0  0  0  0  0  0  0
    1.2781   -1.7284    1.0964 H   0  0  0  0  0  0  0  0  0  0  0  0
   -1.6462    1.8013   -2.4042 H   0  0  0  0  0  0  0  0  0  0  0  0
    2.6769   -0.3111   -1.9983 H   0  0  0  0  0  0  0  0  0  0  0  0
   -2.1922   -4.3551   -1.1702 H   0  0  0  0  0  0  0  0  0  0  0  0
   -3.2294    2.1241    2.2331 H   0  0  0  0  0  0  0  0  0  0  0  0
    3.0576    2.5054    2.0832 H   0  0  0  0  0  0  0  0  0  0  0  0
    0.9351   -4.0967    1.7547 H   0  0  0  0  0  0  0  0  0  0  0  0
   -3.5150    3.3020   -1.8340 H   0  0  0  0  0  0  0  0  0  0  0  0
    4.8959    0.5739   -1.2459 H   0  0  0  0  0  0  0  0  0  0  0  0
   -0.8042   -5.4086    0.6168 H   0  0  0  0  0  0  0  0  0  0  0  0
   -4.2981    3.4634    0.4521 H   0  0  0  0  0  0  0  0  0  0  0  0
    5.0759    1.9629    0.7689 H   0  0  0  0  0  0  0  0  0  0  0  0
  1  2  1  0
  1  3  1  0
  1  4  1  0
  2  5  2  0
  2  8  1  0
  3  6  2  0
  3  9  1  0
  4  7  2  0
  4 10  1  0
  5 11  1  0
  6 12  1  0
  7 13  1  0
  8 14  2  0
  9 15  2  0
 10 16  2  0
 11 17  2  0
 12 18  2  0
 13 19  2  0
 14 17  1  0
 15 18  1  0
 16 19  1  0
  5 20  1  0
  6 21  1  0
  7 22  1  0
  8 23  1  0
  9 24  1  0
 10 25  1  0
 11 26  1  0
 12 27  1  0
 13 28  1  0
 14 29  1  0
 15 30  1  0
 16 31  1  0
 17 32  1  0
 18 33  1  0
 19 34  1  0
M  END
>  <PUBCHEM_COMPOUND_CID>  (1) 
11776

>  <PUBCHEM_CONFORMER_RMSD>  (1) 
0.6

>  <PUBCHEM_CONFORMER_DIVERSEORDER>  (1) 
1
2
3

>  <PUBCHEM_MMFF94_PARTIAL_CHARGES>  (1) 
34
1 -0.04
10 -0.15
11 -0.15
12 -0.15
13 -0.15
14 -0.15
15 -0.15
16 -0.15
17 -0.15
18 -0.15
19 -0.15
2 0.01
20 0.15
21 0.15
22 0.15
23 0.15
24 0.15
25 0.15
26 0.15
27 0.15
28 0.15
29 0.15
3 0.01
30 0.15
31 0.15
32 0.15
33 0.15
34 0.15
4 0.01
5 -0.15
6 -0.15
7 -0.15
8 -0.15
9 -0.15

>  <PUBCHEM_EFFECTIVE_ROTOR_COUNT>  (1) 
3

>  <PUBCHEM_PHARMACOPHORE_FEATURES>  (1) 
3
6 2 5 8 11 14 17 rings
6 3 6 9 12 15 18 rings
6 4 7 10 13 16 19 rings

>  <PUBCHEM_HEAVY_ATOM_COUNT>  (1) 
19

>  <PUBCHEM_ATOM_DEF_STEREO_COUNT>  (1) 
0

>  <PUBCHEM_ATOM_UDEF_STEREO_COUNT>  (1) 
0

>  <PUBCHEM_BOND_DEF_STEREO_COUNT>  (1) 
0

>  <PUBCHEM_BOND_UDEF_STEREO_COUNT>  (1) 
0

>  <PUBCHEM_ISOTOPIC_ATOM_COUNT>  (1) 
0

>  <PUBCHEM_COMPONENT_COUNT>  (1) 
1

>  <PUBCHEM_CACTVS_TAUTO_COUNT>  (1) 
1

>  <PUBCHEM_CONFORMER_ID>  (1) 
00002E0000000001

>  <PUBCHEM_MMFF94_ENERGY>  (1) 
66.8319

>  <PUBCHEM_FEATURE_SELFOVERLAP>  (1) 
15.223

>  <PUBCHEM_SHAPE_FINGERPRINT>  (1) 
11578080 2 17770197385281063016
12054548 360 