# avogadro generated ORCA input file 
# Basic Mode
# 
! RHF OPT def2-TZVP 

* xyz 0 1
   C        3.65325       -6.13723        2.94503
   C        3.33944       -6.99774        4.00299
   C        2.30786       -6.66930        4.88899
   C        1.58950       -5.48095        4.71687
   C        1.90403       -4.62129        3.65982
   C        2.93539       -4.94903        2.77521
   H        4.45113       -6.39009        2.25916
   H        3.89545       -7.91679        4.13540
   H        2.06534       -7.33452        5.70781
   H        0.79108       -5.22403        5.39982
   H        0.89730        1.73525       -0.53665
   H        3.17797       -4.28199        1.96007
   O        1.59567       -4.92082        1.70207
   S        0.59520       -4.53840        2.80944
   O        0.56234       -3.07276        2.35961
   O       -0.74648       -4.94548        1.83155
   O        2.31381        0.12375        1.50091
   H       -1.47012       -5.15027        2.47585
   H        1.46093       -0.37745       -2.95959
*

